
OS:Version,
  {f99f4e12-f85e-4362-a0f8-d2dcadf0f631}, !- Handle
  3.8.0;                                  !- Version Identifier

OS:BuildingStory,
  {8c8c9ad5-3604-47f2-b384-39655d2655be}, !- Handle
  Story 1,                                !- Name
  0,                                      !- Nominal Z Coordinate {m}
  4,                                      !- Nominal Floor to Floor Height {m}
  ,                                       !- Default Construction Set Name
  ,                                       !- Default Schedule Set Name
  ;                                       !- Group Rendering Name

OS:Space,
  {e2461725-9ec7-4baa-b5ce-49e4508fb0cb}, !- Handle
  Story 1 West Perimeter Space,           !- Name
  ,                                       !- Space Type Name
  ,                                       !- Default Construction Set Name
  ,                                       !- Default Schedule Set Name
  -0,                                     !- Direction of Relative North {deg}
  0,                                      !- X Origin {m}
  0,                                      !- Y Origin {m}
  0,                                      !- Z Origin {m}
  {8c8c9ad5-3604-47f2-b384-39655d2655be}, !- Building Story Name
  {d6c4bd0e-7f57-4802-8ae4-a69cb35f2f91}; !- Thermal Zone Name

OS:Surface,
  {8a660e6c-1039-40fb-bfd1-44d68ef15899}, !- Handle
  Story 1 West Perimeter Space Exterior Ground Floor, !- Name
  Floor,                                  !- Surface Type
  ,                                       !- Construction Name
  {e2461725-9ec7-4baa-b5ce-49e4508fb0cb}, !- Space Name
  Ground,                                 !- Outside Boundary Condition
  ,                                       !- Outside Boundary Condition Object
  NoSun,                                  !- Sun Exposure
  NoWind,                                 !- Wind Exposure
  ,                                       !- View Factor to Ground
  ,                                       !- Number of Vertices
  0, 0, 0,                                !- X,Y,Z Vertex 1 {m}
  0, 50, 0,                               !- X,Y,Z Vertex 2 {m}
  3, 47, 0,                               !- X,Y,Z Vertex 3 {m}
  3, 3, 0;                                !- X,Y,Z Vertex 4 {m}

OS:Surface,
  {c11f94a3-0095-4de9-a15b-6b64594846d4}, !- Handle
  Story 1 West Perimeter Space Exterior Wall, !- Name
  Wall,                                   !- Surface Type
  ,                                       !- Construction Name
  {e2461725-9ec7-4baa-b5ce-49e4508fb0cb}, !- Space Name
  Outdoors,                               !- Outside Boundary Condition
  ,                                       !- Outside Boundary Condition Object
  SunExposed,                             !- Sun Exposure
  WindExposed,                            !- Wind Exposure
  ,                                       !- View Factor to Ground
  ,                                       !- Number of Vertices
  0, 0, 4,                                !- X,Y,Z Vertex 1 {m}
  0, 50, 4,                               !- X,Y,Z Vertex 2 {m}
  0, 50, 0,                               !- X,Y,Z Vertex 3 {m}
  0, 0, 0;                                !- X,Y,Z Vertex 4 {m}

OS:Surface,
  {3b15e7d7-6dde-42be-9878-6e6a1a581c7a}, !- Handle
  Story 1 West Perimeter Space to Story 1 North Perimeter Space Interior Wall, !- Name
  Wall,                                   !- Surface Type
  ,                                       !- Construction Name
  {e2461725-9ec7-4baa-b5ce-49e4508fb0cb}, !- Space Name
  Surface,                                !- Outside Boundary Condition
  {a33c06f9-0e42-4b0c-b2a2-9de3145134a7}, !- Outside Boundary Condition Object
  NoSun,                                  !- Sun Exposure
  NoWind,                                 !- Wind Exposure
  ,                                       !- View Factor to Ground
  ,                                       !- Number of Vertices
  0, 50, 4,                               !- X,Y,Z Vertex 1 {m}
  3, 47, 4,                               !- X,Y,Z Vertex 2 {m}
  3, 47, 0,                               !- X,Y,Z Vertex 3 {m}
  0, 50, 0;                               !- X,Y,Z Vertex 4 {m}

OS:Surface,
  {69b11667-4455-4f93-8e71-7d343fa808f5}, !- Handle
  Story 1 West Perimeter Space to Story 1 Core Space Interior Wall, !- Name
  Wall,                                   !- Surface Type
  ,                                       !- Construction Name
  {e2461725-9ec7-4baa-b5ce-49e4508fb0cb}, !- Space Name
  Surface,                                !- Outside Boundary Condition
  {f7245a50-7a56-4093-8316-d08eb8ea2ae6}, !- Outside Boundary Condition Object
  NoSun,                                  !- Sun Exposure
  NoWind,                                 !- Wind Exposure
  ,                                       !- View Factor to Ground
  ,                                       !- Number of Vertices
  3, 47, 4,                               !- X,Y,Z Vertex 1 {m}
  3, 3, 4,                                !- X,Y,Z Vertex 2 {m}
  3, 3, 0,                                !- X,Y,Z Vertex 3 {m}
  3, 47, 0;                               !- X,Y,Z Vertex 4 {m}

OS:Surface,
  {a52da571-dca7-4e4f-bf4a-01e636137ae5}, !- Handle
  Story 1 West Perimeter Space to Story 1 South Perimeter Space Interior Wall, !- Name
  Wall,                                   !- Surface Type
  ,                                       !- Construction Name
  {e2461725-9ec7-4baa-b5ce-49e4508fb0cb}, !- Space Name
  Surface,                                !- Outside Boundary Condition
  {67c02aa9-cfb2-4f33-8653-44296566242d}, !- Outside Boundary Condition Object
  NoSun,                                  !- Sun Exposure
  NoWind,                                 !- Wind Exposure
  ,                                       !- View Factor to Ground
  ,                                       !- Number of Vertices
  3, 3, 4,                                !- X,Y,Z Vertex 1 {m}
  0, 0, 4,                                !- X,Y,Z Vertex 2 {m}
  0, 0, 0,                                !- X,Y,Z Vertex 3 {m}
  3, 3, 0;                                !- X,Y,Z Vertex 4 {m}

OS:Surface,
  {3b6c1bb6-31ae-4c29-8b72-904a8c364232}, !- Handle
  Story 1 West Perimeter Space to Story 2 West Perimeter Space Interior RoofCeiling, !- Name
  RoofCeiling,                            !- Surface Type
  ,                                       !- Construction Name
  {e2461725-9ec7-4baa-b5ce-49e4508fb0cb}, !- Space Name
  Surface,                                !- Outside Boundary Condition
  {aaec781b-d033-4a25-b451-7a83a1dff198}, !- Outside Boundary Condition Object
  NoSun,                                  !- Sun Exposure
  NoWind,                                 !- Wind Exposure
  ,                                       !- View Factor to Ground
  ,                                       !- Number of Vertices
  3, 3, 4,                                !- X,Y,Z Vertex 1 {m}
  3, 47, 4,                               !- X,Y,Z Vertex 2 {m}
  0, 50, 4,                               !- X,Y,Z Vertex 3 {m}
  0, 0, 4;                                !- X,Y,Z Vertex 4 {m}

OS:Space,
  {16c9bf0b-47fa-460c-8c7f-65ef8be82dcd}, !- Handle
  Story 1 North Perimeter Space,          !- Name
  ,                                       !- Space Type Name
  ,                                       !- Default Construction Set Name
  ,                                       !- Default Schedule Set Name
  -0,                                     !- Direction of Relative North {deg}
  3,                                      !- X Origin {m}
  47,                                     !- Y Origin {m}
  0,                                      !- Z Origin {m}
  {8c8c9ad5-3604-47f2-b384-39655d2655be}, !- Building Story Name
  {74261595-0e61-43a8-8072-02af60ca8bbe}; !- Thermal Zone Name

OS:Surface,
  {709545e9-cfa4-499a-a106-4a5dac487583}, !- Handle
  Story 1 North Perimeter Space Exterior Ground Floor, !- Name
  Floor,                                  !- Surface Type
  ,                                       !- Construction Name
  {16c9bf0b-47fa-460c-8c7f-65ef8be82dcd}, !- Space Name
  Ground,                                 !- Outside Boundary Condition
  ,                                       !- Outside Boundary Condition Object
  NoSun,                                  !- Sun Exposure
  NoWind,                                 !- Wind Exposure
  ,                                       !- View Factor to Ground
  ,                                       !- Number of Vertices
  -3, 3, 0,                               !- X,Y,Z Vertex 1 {m}
  97, 3, 0,                               !- X,Y,Z Vertex 2 {m}
  94, 0, 0,                               !- X,Y,Z Vertex 3 {m}
  0, 0, 0;                                !- X,Y,Z Vertex 4 {m}

OS:Surface,
  {098ede6a-9046-42cc-9396-cf6f98670830}, !- Handle
  Story 1 North Perimeter Space Exterior Wall, !- Name
  Wall,                                   !- Surface Type
  ,                                       !- Construction Name
  {16c9bf0b-47fa-460c-8c7f-65ef8be82dcd}, !- Space Name
  Outdoors,                               !- Outside Boundary Condition
  ,                                       !- Outside Boundary Condition Object
  SunExposed,                             !- Sun Exposure
  WindExposed,                            !- Wind Exposure
  ,                                       !- View Factor to Ground
  ,                                       !- Number of Vertices
  -3, 3, 4,                               !- X,Y,Z Vertex 1 {m}
  97, 3, 4,                               !- X,Y,Z Vertex 2 {m}
  97, 3, 0,                               !- X,Y,Z Vertex 3 {m}
  -3, 3, 0;                               !- X,Y,Z Vertex 4 {m}

OS:Surface,
  {9b6411c6-f940-4a05-8b53-1372435c6abd}, !- Handle
  Story 1 North Perimeter Space to Story 1 East Perimeter Space Interior Wall, !- Name
  Wall,                                   !- Surface Type
  ,                                       !- Construction Name
  {16c9bf0b-47fa-460c-8c7f-65ef8be82dcd}, !- Space Name
  Surface,                                !- Outside Boundary Condition
  {1623f1be-ad58-4c00-9852-86a31d7195d2}, !- Outside Boundary Condition Object
  NoSun,                                  !- Sun Exposure
  NoWind,                                 !- Wind Exposure
  ,                                       !- View Factor to Ground
  ,                                       !- Number of Vertices
  97, 3, 4,                               !- X,Y,Z Vertex 1 {m}
  94, 0, 4,                               !- X,Y,Z Vertex 2 {m}
  94, 0, 0,                               !- X,Y,Z Vertex 3 {m}
  97, 3, 0;                               !- X,Y,Z Vertex 4 {m}

OS:Surface,
  {193556ab-8130-47ca-acb4-b1d9f7f5e1c5}, !- Handle
  Story 1 North Perimeter Space to Story 1 Core Space Interior Wall, !- Name
  Wall,                                   !- Surface Type
  ,                                       !- Construction Name
  {16c9bf0b-47fa-460c-8c7f-65ef8be82dcd}, !- Space Name
  Surface,                                !- Outside Boundary Condition
  {2e0fd231-92b0-4923-a76c-020736a4171d}, !- Outside Boundary Condition Object
  NoSun,                                  !- Sun Exposure
  NoWind,                                 !- Wind Exposure
  ,                                       !- View Factor to Ground
  ,                                       !- Number of Vertices
  94, 0, 4,                               !- X,Y,Z Vertex 1 {m}
  0, 0, 4,                                !- X,Y,Z Vertex 2 {m}
  0, 0, 0,                                !- X,Y,Z Vertex 3 {m}
  94, 0, 0;                               !- X,Y,Z Vertex 4 {m}

OS:Surface,
  {a33c06f9-0e42-4b0c-b2a2-9de3145134a7}, !- Handle
  Story 1 North Perimeter Space to Story 1 West Perimeter Space Interior Wall, !- Name
  Wall,                                   !- Surface Type
  ,                                       !- Construction Name
  {16c9bf0b-47fa-460c-8c7f-65ef8be82dcd}, !- Space Name
  Surface,                                !- Outside Boundary Condition
  {3b15e7d7-6dde-42be-9878-6e6a1a581c7a}, !- Outside Boundary Condition Object
  NoSun,                                  !- Sun Exposure
  NoWind,                                 !- Wind Exposure
  ,                                       !- View Factor to Ground
  ,                                       !- Number of Vertices
  0, 0, 4,                                !- X,Y,Z Vertex 1 {m}
  -3, 3, 4,                               !- X,Y,Z Vertex 2 {m}
  -3, 3, 0,                               !- X,Y,Z Vertex 3 {m}
  0, 0, 0;                                !- X,Y,Z Vertex 4 {m}

OS:Surface,
  {af45830d-3453-43bc-be6f-25452532c6eb}, !- Handle
  Story 1 North Perimeter Space to Story 2 North Perimeter Space Interior RoofCeiling, !- Name
  RoofCeiling,                            !- Surface Type
  ,                                       !- Construction Name
  {16c9bf0b-47fa-460c-8c7f-65ef8be82dcd}, !- Space Name
  Surface,                                !- Outside Boundary Condition
  {6e8f57ea-fe8c-438f-9f02-275b7956fa38}, !- Outside Boundary Condition Object
  NoSun,                                  !- Sun Exposure
  NoWind,                                 !- Wind Exposure
  ,                                       !- View Factor to Ground
  ,                                       !- Number of Vertices
  0, 0, 4,                                !- X,Y,Z Vertex 1 {m}
  94, 0, 4,                               !- X,Y,Z Vertex 2 {m}
  97, 3, 4,                               !- X,Y,Z Vertex 3 {m}
  -3, 3, 4;                               !- X,Y,Z Vertex 4 {m}

OS:Space,
  {1bb519ab-c960-4f57-9a0c-fdce3813a3fa}, !- Handle
  Story 1 East Perimeter Space,           !- Name
  ,                                       !- Space Type Name
  ,                                       !- Default Construction Set Name
  ,                                       !- Default Schedule Set Name
  -0,                                     !- Direction of Relative North {deg}
  97,                                     !- X Origin {m}
  3,                                      !- Y Origin {m}
  0,                                      !- Z Origin {m}
  {8c8c9ad5-3604-47f2-b384-39655d2655be}, !- Building Story Name
  {aa00b2f1-ea4f-4294-826d-f331f0d1c140}; !- Thermal Zone Name

OS:Surface,
  {904af57c-91e1-42bc-b333-ac51c15ec4d8}, !- Handle
  Story 1 East Perimeter Space Exterior Ground Floor, !- Name
  Floor,                                  !- Surface Type
  ,                                       !- Construction Name
  {1bb519ab-c960-4f57-9a0c-fdce3813a3fa}, !- Space Name
  Ground,                                 !- Outside Boundary Condition
  ,                                       !- Outside Boundary Condition Object
  NoSun,                                  !- Sun Exposure
  NoWind,                                 !- Wind Exposure
  ,                                       !- View Factor to Ground
  ,                                       !- Number of Vertices
  3, 47, 0,                               !- X,Y,Z Vertex 1 {m}
  3, -3, 0,                               !- X,Y,Z Vertex 2 {m}
  0, 0, 0,                                !- X,Y,Z Vertex 3 {m}
  0, 44, 0;                               !- X,Y,Z Vertex 4 {m}

OS:Surface,
  {af959396-46e8-4e23-bf61-9b97eb7e633f}, !- Handle
  Story 1 East Perimeter Space Exterior Wall, !- Name
  Wall,                                   !- Surface Type
  ,                                       !- Construction Name
  {1bb519ab-c960-4f57-9a0c-fdce3813a3fa}, !- Space Name
  Outdoors,                               !- Outside Boundary Condition
  ,                                       !- Outside Boundary Condition Object
  SunExposed,                             !- Sun Exposure
  WindExposed,                            !- Wind Exposure
  ,                                       !- View Factor to Ground
  ,                                       !- Number of Vertices
  3, 47, 4,                               !- X,Y,Z Vertex 1 {m}
  3, -3, 4,                               !- X,Y,Z Vertex 2 {m}
  3, -3, 0,                               !- X,Y,Z Vertex 3 {m}
  3, 47, 0;                               !- X,Y,Z Vertex 4 {m}

OS:Surface,
  {638e1c03-bc46-4257-adc7-12c4ed82592a}, !- Handle
  Story 1 East Perimeter Space to Story 1 South Perimeter Space Interior Wall, !- Name
  Wall,                                   !- Surface Type
  ,                                       !- Construction Name
  {1bb519ab-c960-4f57-9a0c-fdce3813a3fa}, !- Space Name
  Surface,                                !- Outside Boundary Condition
  {6fb4c5c2-f2d0-48fe-af14-8d175b0e7b6f}, !- Outside Boundary Condition Object
  NoSun,                                  !- Sun Exposure
  NoWind,                                 !- Wind Exposure
  ,                                       !- View Factor to Ground
  ,                                       !- Number of Vertices
  3, -3, 4,                               !- X,Y,Z Vertex 1 {m}
  0, 0, 4,                                !- X,Y,Z Vertex 2 {m}
  0, 0, 0,                                !- X,Y,Z Vertex 3 {m}
  3, -3, 0;                               !- X,Y,Z Vertex 4 {m}

OS:Surface,
  {de548388-19c2-40b9-9d9c-9405be9ca7a8}, !- Handle
  Story 1 East Perimeter Space to Story 1 Core Space Interior Wall, !- Name
  Wall,                                   !- Surface Type
  ,                                       !- Construction Name
  {1bb519ab-c960-4f57-9a0c-fdce3813a3fa}, !- Space Name
  Surface,                                !- Outside Boundary Condition
  {ad567bd6-77df-4ea4-955a-a75ddf34e98a}, !- Outside Boundary Condition Object
  NoSun,                                  !- Sun Exposure
  NoWind,                                 !- Wind Exposure
  ,                                       !- View Factor to Ground
  ,                                       !- Number of Vertices
  0, 0, 4,                                !- X,Y,Z Vertex 1 {m}
  0, 44, 4,                               !- X,Y,Z Vertex 2 {m}
  0, 44, 0,                               !- X,Y,Z Vertex 3 {m}
  0, 0, 0;                                !- X,Y,Z Vertex 4 {m}

OS:Surface,
  {1623f1be-ad58-4c00-9852-86a31d7195d2}, !- Handle
  Story 1 East Perimeter Space to Story 1 North Perimeter Space Interior Wall, !- Name
  Wall,                                   !- Surface Type
  ,                                       !- Construction Name
  {1bb519ab-c960-4f57-9a0c-fdce3813a3fa}, !- Space Name
  Surface,                                !- Outside Boundary Condition
  {9b6411c6-f940-4a05-8b53-1372435c6abd}, !- Outside Boundary Condition Object
  NoSun,                                  !- Sun Exposure
  NoWind,                                 !- Wind Exposure
  ,                                       !- View Factor to Ground
  ,                                       !- Number of Vertices
  0, 44, 4,                               !- X,Y,Z Vertex 1 {m}
  3, 47, 4,                               !- X,Y,Z Vertex 2 {m}
  3, 47, 0,                               !- X,Y,Z Vertex 3 {m}
  0, 44, 0;                               !- X,Y,Z Vertex 4 {m}

OS:Surface,
  {6a311c01-fd9c-43b2-98b7-0794e77e5940}, !- Handle
  Story 1 East Perimeter Space to Story 2 East Perimeter Space Interior RoofCeiling, !- Name
  RoofCeiling,                            !- Surface Type
  ,                                       !- Construction Name
  {1bb519ab-c960-4f57-9a0c-fdce3813a3fa}, !- Space Name
  Surface,                                !- Outside Boundary Condition
  {2b4cd3f7-85cb-4e2c-83e3-322c1f9ed249}, !- Outside Boundary Condition Object
  NoSun,                                  !- Sun Exposure
  NoWind,                                 !- Wind Exposure
  ,                                       !- View Factor to Ground
  ,                                       !- Number of Vertices
  0, 44, 4,                               !- X,Y,Z Vertex 1 {m}
  0, 0, 4,                                !- X,Y,Z Vertex 2 {m}
  3, -3, 4,                               !- X,Y,Z Vertex 3 {m}
  3, 47, 4;                               !- X,Y,Z Vertex 4 {m}

OS:Space,
  {a1f9a0a3-9cac-4260-a889-7773661e115a}, !- Handle
  Story 1 South Perimeter Space,          !- Name
  ,                                       !- Space Type Name
  ,                                       !- Default Construction Set Name
  ,                                       !- Default Schedule Set Name
  -0,                                     !- Direction of Relative North {deg}
  0,                                      !- X Origin {m}
  0,                                      !- Y Origin {m}
  0,                                      !- Z Origin {m}
  {8c8c9ad5-3604-47f2-b384-39655d2655be}, !- Building Story Name
  {92e4fa5e-20e6-4cb0-a139-a6c6fa212dea}; !- Thermal Zone Name

OS:Surface,
  {90c06d49-3832-4cfa-bb14-620ed9ee6fdd}, !- Handle
  Story 1 South Perimeter Space Exterior Ground Floor, !- Name
  Floor,                                  !- Surface Type
  ,                                       !- Construction Name
  {a1f9a0a3-9cac-4260-a889-7773661e115a}, !- Space Name
  Ground,                                 !- Outside Boundary Condition
  ,                                       !- Outside Boundary Condition Object
  NoSun,                                  !- Sun Exposure
  NoWind,                                 !- Wind Exposure
  ,                                       !- View Factor to Ground
  ,                                       !- Number of Vertices
  100, 0, 0,                              !- X,Y,Z Vertex 1 {m}
  0, 0, 0,                                !- X,Y,Z Vertex 2 {m}
  3, 3, 0,                                !- X,Y,Z Vertex 3 {m}
  97, 3, 0;                               !- X,Y,Z Vertex 4 {m}

OS:Surface,
  {45033b7b-ddd1-4326-8837-f1f299aeda58}, !- Handle
  Story 1 South Perimeter Space Exterior Wall, !- Name
  Wall,                                   !- Surface Type
  ,                                       !- Construction Name
  {a1f9a0a3-9cac-4260-a889-7773661e115a}, !- Space Name
  Outdoors,                               !- Outside Boundary Condition
  ,                                       !- Outside Boundary Condition Object
  SunExposed,                             !- Sun Exposure
  WindExposed,                            !- Wind Exposure
  ,                                       !- View Factor to Ground
  ,                                       !- Number of Vertices
  100, 0, 4,                              !- X,Y,Z Vertex 1 {m}
  0, 0, 4,                                !- X,Y,Z Vertex 2 {m}
  0, 0, 0,                                !- X,Y,Z Vertex 3 {m}
  100, 0, 0;                              !- X,Y,Z Vertex 4 {m}

OS:Surface,
  {67c02aa9-cfb2-4f33-8653-44296566242d}, !- Handle
  Story 1 South Perimeter Space to Story 1 West Perimeter Space Interior Wall, !- Name
  Wall,                                   !- Surface Type
  ,                                       !- Construction Name
  {a1f9a0a3-9cac-4260-a889-7773661e115a}, !- Space Name
  Surface,                                !- Outside Boundary Condition
  {a52da571-dca7-4e4f-bf4a-01e636137ae5}, !- Outside Boundary Condition Object
  NoSun,                                  !- Sun Exposure
  NoWind,                                 !- Wind Exposure
  ,                                       !- View Factor to Ground
  ,                                       !- Number of Vertices
  0, 0, 4,                                !- X,Y,Z Vertex 1 {m}
  3, 3, 4,                                !- X,Y,Z Vertex 2 {m}
  3, 3, 0,                                !- X,Y,Z Vertex 3 {m}
  0, 0, 0;                                !- X,Y,Z Vertex 4 {m}

OS:Surface,
  {eb293360-c759-47df-9c87-b6721d6e0dbe}, !- Handle
  Story 1 South Perimeter Space to Story 1 Core Space Interior Wall, !- Name
  Wall,                                   !- Surface Type
  ,                                       !- Construction Name
  {a1f9a0a3-9cac-4260-a889-7773661e115a}, !- Space Name
  Surface,                                !- Outside Boundary Condition
  {475f3814-ae4a-44ed-95aa-14f9db93a938}, !- Outside Boundary Condition Object
  NoSun,                                  !- Sun Exposure
  NoWind,                                 !- Wind Exposure
  ,                                       !- View Factor to Ground
  ,                                       !- Number of Vertices
  3, 3, 4,                                !- X,Y,Z Vertex 1 {m}
  97, 3, 4,                               !- X,Y,Z Vertex 2 {m}
  97, 3, 0,                               !- X,Y,Z Vertex 3 {m}
  3, 3, 0;                                !- X,Y,Z Vertex 4 {m}

OS:Surface,
  {6fb4c5c2-f2d0-48fe-af14-8d175b0e7b6f}, !- Handle
  Story 1 South Perimeter Space to Story 1 East Perimeter Space Interior Wall, !- Name
  Wall,                                   !- Surface Type
  ,                                       !- Construction Name
  {a1f9a0a3-9cac-4260-a889-7773661e115a}, !- Space Name
  Surface,                                !- Outside Boundary Condition
  {638e1c03-bc46-4257-adc7-12c4ed82592a}, !- Outside Boundary Condition Object
  NoSun,                                  !- Sun Exposure
  NoWind,                                 !- Wind Exposure
  ,                                       !- View Factor to Ground
  ,                                       !- Number of Vertices
  97, 3, 4,                               !- X,Y,Z Vertex 1 {m}
  100, 0, 4,                              !- X,Y,Z Vertex 2 {m}
  100, 0, 0,                              !- X,Y,Z Vertex 3 {m}
  97, 3, 0;                               !- X,Y,Z Vertex 4 {m}

OS:Surface,
  {71b07a0b-7d07-466e-b94b-4e3dfa7e7985}, !- Handle
  Story 1 South Perimeter Space to Story 2 South Perimeter Space Interior RoofCeiling, !- Name
  RoofCeiling,                            !- Surface Type
  ,                                       !- Construction Name
  {a1f9a0a3-9cac-4260-a889-7773661e115a}, !- Space Name
  Surface,                                !- Outside Boundary Condition
  {dfffb35f-4a1c-485d-8e89-edd7d910447e}, !- Outside Boundary Condition Object
  NoSun,                                  !- Sun Exposure
  NoWind,                                 !- Wind Exposure
  ,                                       !- View Factor to Ground
  ,                                       !- Number of Vertices
  97, 3, 4,                               !- X,Y,Z Vertex 1 {m}
  3, 3, 4,                                !- X,Y,Z Vertex 2 {m}
  0, 0, 4,                                !- X,Y,Z Vertex 3 {m}
  100, 0, 4;                              !- X,Y,Z Vertex 4 {m}

OS:Space,
  {d5d6b502-6920-45cd-83d1-44e326475a0c}, !- Handle
  Story 1 Core Space,                     !- Name
  ,                                       !- Space Type Name
  ,                                       !- Default Construction Set Name
  ,                                       !- Default Schedule Set Name
  -0,                                     !- Direction of Relative North {deg}
  3,                                      !- X Origin {m}
  3,                                      !- Y Origin {m}
  0,                                      !- Z Origin {m}
  {8c8c9ad5-3604-47f2-b384-39655d2655be}, !- Building Story Name
  {e24ef0cf-c765-46a7-a64e-26c39897f43e}; !- Thermal Zone Name

OS:Surface,
  {3e9c6f7c-52c3-445c-98ee-5eac45335d71}, !- Handle
  Story 1 Core Space Exterior Ground Floor, !- Name
  Floor,                                  !- Surface Type
  ,                                       !- Construction Name
  {d5d6b502-6920-45cd-83d1-44e326475a0c}, !- Space Name
  Ground,                                 !- Outside Boundary Condition
  ,                                       !- Outside Boundary Condition Object
  NoSun,                                  !- Sun Exposure
  NoWind,                                 !- Wind Exposure
  ,                                       !- View Factor to Ground
  ,                                       !- Number of Vertices
  0, 0, 0,                                !- X,Y,Z Vertex 1 {m}
  0, 44, 0,                               !- X,Y,Z Vertex 2 {m}
  94, 44, 0,                              !- X,Y,Z Vertex 3 {m}
  94, 0, 0;                               !- X,Y,Z Vertex 4 {m}

OS:Surface,
  {f7245a50-7a56-4093-8316-d08eb8ea2ae6}, !- Handle
  Story 1 Core Space to Story 1 West Perimeter Space Interior Wall, !- Name
  Wall,                                   !- Surface Type
  ,                                       !- Construction Name
  {d5d6b502-6920-45cd-83d1-44e326475a0c}, !- Space Name
  Surface,                                !- Outside Boundary Condition
  {69b11667-4455-4f93-8e71-7d343fa808f5}, !- Outside Boundary Condition Object
  NoSun,                                  !- Sun Exposure
  NoWind,                                 !- Wind Exposure
  ,                                       !- View Factor to Ground
  ,                                       !- Number of Vertices
  0, 0, 4,                                !- X,Y,Z Vertex 1 {m}
  0, 44, 4,                               !- X,Y,Z Vertex 2 {m}
  0, 44, 0,                               !- X,Y,Z Vertex 3 {m}
  0, 0, 0;                                !- X,Y,Z Vertex 4 {m}

OS:Surface,
  {2e0fd231-92b0-4923-a76c-020736a4171d}, !- Handle