
OS:Version,
  {ff7c63f8-10b4-4c9f-b922-a321358e8f38}, !- Handle
  3.0.1;                                  !- Version Identifier

OS:Building,
  {9aac1158-90c3-40fa-89a5-05386420fe4e}, !- Handle
  -LargeOffice-GBCZ-3B created: 2024-05-30 12:30:29 +0800, !- Name
  ,                                       !- Building Sector Type
  0,                                      !- North Axis {deg}
  ,                                       !- Nominal Floor to Floor Height {m}
  ,                                       !- Space Type Name
  {5acdbdfd-79bc-4542-a581-e01b027202fc}, !- Default Construction Set Name
  ,                                       !- Default Schedule Set Name
  12,                                     !- Standards Number of Stories
  12,                                     !- Standards Number of Above Ground Stories
  ,                                       !- Standards Template
  LargeOffice;                            !- Standards Building Type

OS:SpaceType,
  {4ae6ef1f-cf06-4f32-b453-79df05a70720}, !- Handle
  Office WholeBuilding - Lg Office,       !- Name
  ,                                       !- Default Construction Set Name
  {69fa170c-3b18-4e90-bcfd-4c0d2a9a182e}, !- Default Schedule Set Name
  {8953cc86-ad75-4b4b-9e9c-05c30c926f6d}, !- Group Rendering Name
  {6723b48c-f6b1-4197-b234-c384fbbee61e}, !- Design Specification Outdoor Air Object Name
  ,                                       !- Standards Template
  Office,                                 !- Standards Building Type
  WholeBuilding - Lg Office;              !- Standards Space Type

OS:SpaceType,
  {6cb66cc6-6607-497a-8237-b80cc38d643a}, !- Handle
  Office OfficeLarge Main Data Center,    !- Name
  ,                                       !- Default Construction Set Name
  {981602c4-5f4c-471b-a5b1-a7e862c67bb7}, !- Default Schedule Set Name
  {01387cb5-cf22-47bb-9bf0-8d1fc8db29d7}, !- Group Rendering Name
  {a98a5484-ebfd-46de-8e55-5a3fddefeea8}, !- Design Specification Outdoor Air Object Name
  ,                                       !- Standards Template
  Office,                                 !- Standards Building Type
  OfficeLarge Main Data Center;           !- Standards Space Type

OS:SpaceType,
  {20e096d0-e7ad-4b9c-bb28-21f2107a066f}, !- Handle
  Plenum,                                 !- Name
  {2f0b045f-dbc4-4442-9b00-bd3408aa403c}, !- Default Construction Set Name
  {2f9bc6bc-ef55-4604-bb07-0c716c13c640}, !- Default Schedule Set Name
  ,                                       !- Group Rendering Name
  ,                                       !- Design Specification Outdoor Air Object Name
  ,                                       !- Standards Template
  ,                                       !- Standards Building Type
  Plenum;                                 !- Standards Space Type

OS:BuildingStory,
  {4f00d3c2-7761-449c-abbd-3fb39e0eeea5}, !- Handle
  S1,                                     !- Name
  0,                                      !- Nominal Z Coordinate {m}
  3.9624,                                 !- Nominal Floor to Floor Height {m}
  ,                                       !- Default Construction Set Name
  ,                                       !- Default Schedule Set Name
  ;                                       !- Group Rendering Name

OS:Space,
  {b603558b-5425-436e-a979-8f16b7d23b7d}, !- Handle
  S1-plenum,                              !- Name
  {20e096d0-e7ad-4b9c-bb28-21f2107a066f}, !- Space Type Name
  ,                                       !- Default Construction Set Name
  ,                                       !- Default Schedule Set Name
  ,                                       !- Direction of Relative North {deg}
  ,                                       !- X Origin {m}
  ,                                       !- Y Origin {m}
  ,                                       !- Z Origin {m}
  {4f00d3c2-7761-449c-abbd-3fb39e0eeea5}, !- Building Story Name
  {0624f24f-8336-4f14-97f1-8c2fb52f99be}, !- Thermal Zone Name
  No;                                     !- Part of Total Floor Area

OS:Surface,
  {c0195212-2d07-4ee4-ade0-b1a817cdae1c}, !- Handle
  S1-plenum_north floor,                  !- Name
  Floor,                                  !- Surface Type
  ,                                       !- Construction Name
  {b603558b-5425-436e-a979-8f16b7d23b7d}, !- Space Name
  Surface,                                !- Outside Boundary Condition
  {c02ed0aa-2fe9-41d4-8c51-3892b6770585}, !- Outside Boundary Condition Object
  NoSun,                                  !- Sun Exposure
  NoWind,                                 !- Wind Exposure
  ,                                       !- View Factor to Ground
  ,                                       !- Number of Vertices
  0, 0, 2.7432,                           !- X,Y,Z Vertex 1 {m}
  0, 48.768, 2.7432,                      !- X,Y,Z Vertex 2 {m}
  4.5732, 44.1948, 2.7432,                !- X,Y,Z Vertex 3 {m}
  4.5732, 4.5732, 2.7432;                 !- X,Y,Z Vertex 4 {m}

OS:Surface,
  {ce7bff01-4076-4dd9-ae5f-373cbdd734d3}, !- Handle
  S1-plenum_west floor,                   !- Name
  Floor,                                  !- Surface Type
  ,                                       !- Construction Name
  {b603558b-5425-436e-a979-8f16b7d23b7d}, !- Space Name
  Surface,                                !- Outside Boundary Condition
  {abf7e6a3-c5c9-4f0d-bdbf-62ae6e954d70}, !- Outside Boundary Condition Object
  NoSun,                                  !- Sun Exposure
  NoWind,                                 !- Wind Exposure
  ,                                       !- View Factor to Ground
  ,                                       !- Number of Vertices
  0, 48.768, 2.7432,                      !- X,Y,Z Vertex 1 {m}
  73.152, 48.768, 2.7432,                 !- X,Y,Z Vertex 2 {m}
  68.5788, 44.1948, 2.7432,               !- X,Y,Z Vertex 3 {m}
  4.5732, 44.1948, 2.7432;                !- X,Y,Z Vertex 4 {m}

OS:Surface,
  {f44b1829-f924-4c1b-8c45-250c52ecc2b7}, !- Handle
  S1-plenum_east floor,                   !- Name
  Floor,                                  !- Surface Type
  ,                                       !- Construction Name
  {b603558b-5425-436e-a979-8f16b7d23b7d}, !- Space Name
  Surface,                                !- Outside Boundary Condition
  {92c4d11d-5ded-4547-af8d-8de34734199e}, !- Outside Boundary Condition Object
  NoSun,                                  !- Sun Exposure
  NoWind,                                 !- Wind Exposure
  ,                                       !- View Factor to Ground
  ,                                       !- Number of Vertices
  73.152, 48.768, 2.7432,                 !- X,Y,Z Vertex 1 {m}
  73.152, 0, 2.7432,                      !- X,Y,Z Vertex 2 {m}
  68.5788, 4.5732, 2.7432,                !- X,Y,Z Vertex 3 {m}
  68.5788, 44.1948, 2.7432;               !- X,Y,Z Vertex 4 {m}

OS:Surface,
  {b2819746-d9bf-4493-83f3-72848dcb543b}, !- Handle
  S1-plenum_south floor,                  !- Name
  Floor,                                  !- Surface Type
  ,                                       !- Construction Name
  {b603558b-5425-436e-a979-8f16b7d23b7d}, !- Space Name
  Surface,                                !- Outside Boundary Condition
  {b5e9be3f-5c50-4332-bc08-b3386f20c5e0}, !- Outside Boundary Condition Object
  NoSun,                                  !- Sun Exposure
  NoWind,                                 !- Wind Exposure
  ,                                       !- View Factor to Ground
  ,                                       !- Number of Vertices
  73.152, 0, 2.7432,                      !- X,Y,Z Vertex 1 {m}
  0, 0, 2.7432,                           !- X,Y,Z Vertex 2 {m}
  4.5732, 4.5732, 2.7432,                 !- X,Y,Z Vertex 3 {m}
  68.5788, 4.5732, 2.7432;                !- X,Y,Z Vertex 4 {m}

OS:Surface,
  {92d04fff-8071-43db-9a71-f50e9d29fbcd}, !- Handle
  S1-plenum_core floor,                   !- Name
  Floor,                                  !- Surface Type
  ,                                       !- Construction Name
  {b603558b-5425-436e-a979-8f16b7d23b7d}, !- Space Name
  Surface,                                !- Outside Boundary Condition
  {bd424415-9ea4-45a1-84f0-c21562cbef86}, !- Outside Boundary Condition Object
  NoSun,                                  !- Sun Exposure
  NoWind,                                 !- Wind Exposure
  ,                                       !- View Factor to Ground
  ,                                       !- Number of Vertices
  68.5788, 4.5732, 2.7432,                !- X,Y,Z Vertex 1 {m}
  4.5732, 4.5732, 2.7432,                 !- X,Y,Z Vertex 2 {m}
  4.5732, 44.1948, 2.7432,                !- X,Y,Z Vertex 3 {m}
  68.5788, 44.1948, 2.7432;               !- X,Y,Z Vertex 4 {m}

OS:Surface,
  {47f61976-2543-4f2f-9e21-bc5ac67e5a1a}, !- Handle
  S1-plenum_west ceiling,                 !- Name
  RoofCeiling,                            !- Surface Type
  {f7e86ced-88aa-4615-8222-2b7f763f0fb7}, !- Construction Name
  {b603558b-5425-436e-a979-8f16b7d23b7d}, !- Space Name
  Adiabatic,                              !- Outside Boundary Condition
  ,                                       !- Outside Boundary Condition Object
  NoSun,                                  !- Sun Exposure
  NoWind,                                 !- Wind Exposure
  ,                                       !- View Factor to Ground
  ,                                       !- Number of Vertices
  0, 0, 3.9624,                           !- X,Y,Z Vertex 1 {m}
  4.5732, 4.5732, 3.9624,                 !- X,Y,Z Vertex 2 {m}
  4.5732, 44.1948, 3.9624,                !- X,Y,Z Vertex 3 {m}
  0, 48.768, 3.9624;                      !- X,Y,Z Vertex 4 {m}

OS:Surface,
  {8acf635b-7c5a-412f-93b5-6b04bdf664e4}, !- Handle
  S1-plenum_north ceiling,                !- Name
  RoofCeiling,                            !- Surface Type
  {f7e86ced-88aa-4615-8222-2b7f763f0fb7}, !- Construction Name
  {b603558b-5425-436e-a979-8f16b7d23b7d}, !- Space Name
  Adiabatic,                              !- Outside Boundary Condition
  ,                                       !- Outside Boundary Condition Object
  NoSun,                                  !- Sun Exposure
  NoWind,                                 !- Wind Exposure
  ,                                       !- View Factor to Ground
  ,                                       !- Number of Vertices
  0, 48.768, 3.9624,                      !- X,Y,Z Vertex 1 {m}
  4.5732, 44.1948, 3.9624,                !- X,Y,Z Vertex 2 {m}
  68.5788, 44.1948, 3.9624,               !- X,Y,Z Vertex 3 {m}
  73.152, 48.768, 3.9624;                 !- X,Y,Z Vertex 4 {m}

OS:Surface,
  {29716e08-9086-4f26-a947-d6569221809b}, !- Handle
  S1-plenum_east ceiling,                 !- Name
  RoofCeiling,                            !- Surface Type
  {f7e86ced-88aa-4615-8222-2b7f763f0fb7}, !- Construction Name
  {b603558b-5425-436e-a979-8f16b7d23b7d}, !- Space Name
  Adiabatic,                              !- Outside Boundary Condition
  ,                                       !- Outside Boundary Condition Object
  NoSun,                                  !- Sun Exposure
  NoWind,                                 !- Wind Exposure
  ,                                       !- View Factor to Ground
  ,                                       !- Number of Vertices
  73.152, 48.768, 3.9624,                 !- X,Y,Z Vertex 1 {m}
  68.5788, 44.1948, 3.9624,               !- X,Y,Z Vertex 2 {m}
  68.5788, 4.5732, 3.9624,                !- X,Y,Z Vertex 3 {m}
  73.152, 0, 3.9624;                      !- X,Y,Z Vertex 4 {m}

OS:Surface,
  {c8cccea5-b7ff-44df-8606-f5f0486a688a}, !- Handle
  S1-plenum_south ceiling,                !- Name
  RoofCeiling,                            !- Surface Type
  {f7e86ced-88aa-4615-8222-2b7f763f0fb7}, !- Construction Name
  {b603558b-5425-436e-a979-8f16b7d23b7d}, !- Space Name
  Adiabatic,                              !- Outside Boundary Condition
  ,                                       !- Outside Boundary Condition Object
  NoSun,                                  !- Sun Exposure
  NoWind,                                 !- Wind Exposure
  ,                                       !- View Factor to Ground
  ,                                       !- Number of Vertices
  73.152, 0, 3.9624,                      !- X,Y,Z Vertex 1 {m}
  68.5788, 4.5732, 3.9624,                !- X,Y,Z Vertex 2 {m}
  4.5732, 4.5732, 3.9624,                 !- X,Y,Z Vertex 3 {m}
  0, 0, 3.9624;                           !- X,Y,Z Vertex 4 {m}

OS:Surface,
  {5ca1ea4a-2aff-4dc8-bc87-d7b960228f59}, !- Handle
  S1-plenum_core ceiling,                 !- Name
  RoofCeiling,                            !- Surface Type
  {f7e86ced-88aa-4615-8222-2b7f763f0fb7}, !- Construction Name
  {b603558b-5425-436e-a979-8f16b7d23b7d}, !- Space Name
  Adiabatic,                              !- Outside Boundary Condition
  ,                                       !- Outside Boundary Condition Object
  NoSun,                                  !- Sun Exposure
  NoWind,                                 !- Wind Exposure
  ,                                       !- View Factor to Ground
  ,                                       !- Number of Vertices
  68.5788, 4.5732, 3.9624,                !- X,Y,Z Vertex 1 {m}
  68.5788, 44.1948, 3.9624,               !- X,Y,Z Vertex 2 {m}
  4.5732, 44.1948, 3.9624,                !- X,Y,Z Vertex 3 {m}
  4.5732, 4.5732, 3.9624;                 !- X,Y,Z Vertex 4 {m}

OS:Surface,
  {daa5f9a7-73a1-458c-8006-e2900528f3e1}, !- Handle
  S1-plenum_west wall,                    !- Name
  Wall,                                   !- Surface Type
  ,                                       !- Construction Name
  {b603558b-5425-436e-a979-8f16b7d23b7d}, !- Space Name
  Outdoors,                               !- Outside Boundary Condition
  ,                                       !- Outside Boundary Condition Object
  SunExposed,                             !- Sun Exposure
  WindExposed,                            !- Wind Exposure
  ,                                       !- View Factor to Ground
  ,                                       !- Number of Vertices
  0, 0, 2.7432,                           !- X,Y,Z Vertex 1 {m}
  0, 0, 3.9624,                           !- X,Y,Z Vertex 2 {m}
  0, 48.768, 3.9624,                      !- X,Y,Z Vertex 3 {m}
  0, 48.768, 2.7432;                      !- X,Y,Z Vertex 4 {m}

OS:Surface,
  {9d70e1f3-0dbe-47c1-a142-edc366c5dc3a}, !- Handle
  S1-plenum_north wall,                   !- Name
  Wall,                                   !- Surface Type
  ,                                       !- Construction Name
  {b603558b-5425-436e-a979-8f16b7d23b7d}, !- Space Name
  Outdoors,                               !- Outside Boundary Condition
  ,                                       !- Outside Boundary Condition Object
  SunExposed,                             !- Sun Exposure
  WindExposed,                            !- Wind Exposure
  ,                                       !- View Factor to Ground
  ,                                       !- Number of Vertices
  0, 48.768, 2.7432,                      !- X,Y,Z Vertex 1 {m}
  0, 48.768, 3.9624,                      !- X,Y,Z Vertex 2 {m}
  73.152, 48.768, 3.9624,                 !- X,Y,Z Vertex 3 {m}
  73.152, 48.768, 2.7432;                 !- X,Y,Z Vertex 4 {m}

OS:Surface,
  {646999c4-dce8-48d7-b22c-eda9a3fefdaf}, !- Handle
  S1-plenum_east wall,                    !- Name
  Wall,                                   !- Surface Type
  ,                                       !- Construction Name
  {b603558b-5425-436e-a979-8f16b7d23b7d}, !- Space Name
  Outdoors,                               !- Outside Boundary Condition
  ,                                       !- Outside Boundary Condition Object
  SunExposed,                             !- Sun Exposure
  WindExposed,                            !- Wind Exposure
  ,                                       !- View Factor to Ground
  ,                                       !- Number of Vertices
  73.152, 48.768, 2.7432,                 !- X,Y,Z Vertex 1 {m}
  73.152, 48.768, 3.9624,                 !- X,Y,Z Vertex 2 {m}
  73.152, 0, 3.9624,                      !- X,Y,Z Vertex 3 {m}
  73.152, 0, 2.7432;                      !- X,Y,Z Vertex 4 {m}

OS:Surface,
  {1f9a6e5e-b0cb-4df7-9d0c-dbef119b0f14}, !- Handle
  S1-plenum_south wall,                   !- Name
  Wall,                                   !- Surface Type
  ,                                       !- Construction Name
  {b603558b-5425-436e-a979-8f16b7d23b7d}, !- Space Name
  Outdoors,                               !- Outside Boundary Condition
  ,                                       !- Outside Boundary Condition Object
  SunExposed,                             !- Sun Exposure
  WindExposed,                            !- Wind Exposure
  ,                                       !- View Factor to Ground
  ,                                       !- Number of Vertices
  73.152, 0, 2.7432,                      !- X,Y,Z Vertex 1 {m}
  73.152, 0, 3.9624,                      !- X,Y,Z Vertex 2 {m}
  0, 0, 3.9624,                           !- X,Y,Z Vertex 3 {m}
  0, 0, 2.7432;                           !- X,Y,Z Vertex 4 {m}

OS:Space,
  {d900b5b2-b355-47b1-8ab7-bcb7244b9988}, !- Handle
  S1_east space,                          !- Name
  {4ae6ef1f-cf06-4f32-b453-79df05a70720}, !- Space Type Name
  ,                                       !- Default Construction Set Name
  ,                                       !- Default Schedule Set Name
  ,                                       !- Direction of Relative North {deg}
  ,                                       !- X Origin {m}
  ,                                       !- Y Origin {m}
  ,                                       !- Z Origin {m}
  {4f00d3c2-7761-449c-abbd-3fb39e0eeea5}, !- Building Story Name
  {6c9c2904-c614-4082-993e-e0bea904a1b3}, !- Thermal Zone Name
  Yes;                                    !- Part of Total Floor Area

OS:Surface,
  {92c4d11d-5ded-4547-af8d-8de34734199e}, !- Handle
  S1_east space_roof,                     !- Name
  RoofCeiling,                            !- Surface Type
  {9ee3e5bc-3c40-4436-8881-9c91059d651e}, !- Construction Name
  {d900b5b2-b355-47b1-8ab7-bcb7244b9988}, !- Space Name
  Surface,                                !- Outside Boundary Condition
  {f44b1829-f924-4c1b-8c45-250c52ecc2b7}, !- Outside Boundary Condition Object
  NoSun,                                  !- Sun Exposure
  NoWind,                                 !- Wind Exposure
  ,                                       !- View Factor to Ground
  ,                                       !- Number of Vertices
  68.5788, 44.1948, 2.7432,               !- X,Y,Z Vertex 1 {m}
  68.5788, 4.5732, 2.7432,                !- X,Y,Z Vertex 2 {m}
  73.152, 0, 2.7432,                      !- X,Y,Z Vertex 3 {m}
  73.152, 48.768, 2.7432;                 !- X,Y,Z Vertex 4 {m}

OS:Surface,
  {c2944965-9fe7-4587-8dba-32fde0d14bb0}, !- Handle
  S1_east space_floor,                    !- Name
  Floor,                                  !- Surface Type
  {f7e86ced-88aa-4615-8222-2b7f763f0fb7}, !- Construction Name
  {d900b5b2-b355-47b1-8ab7-bcb7244b9988}, !- Space Name
  Adiabatic,                              !- Outside Boundary Condition
  ,                                       !- Outside Boundary Condition Object
  NoSun,                                  !- Sun Exposure
  NoWind,                                 !- Wind Exposure
  ,                                       !- View Factor to Ground
  ,                                       !- Number of Vertices
  68.5788, 4.5732, 0,                     !- X,Y,Z Vertex 1 {m}
  68.5788, 44.1948, 0,                    !- X,Y,Z Vertex 2 {m}
  73.152, 48.768, 0,                      !- X,Y,Z Vertex 3 {m}
  73.152, 0, 0;                           !- X,Y,Z Vertex 4 {m}

OS:Surface,
  {80cb752d-6f69-45e2-9ee4-7e8334b4ba66}, !- Handle
  S1_east space_wall 0,                   !- Name
  Wall,                                   !- Surface Type
  ,                                       !- Construction Name
  {d900b5b2-b355-47b1-8ab7-bcb7244b9988}, !- Space Name
  Surface,                                !- Outside Boundary Condition
  {82f5862a-c7b5-4d4e-8086-66b920bdbbc2}, !- Outside Boundary Condition Object
  NoSun,                                  !- Sun Exposure
  NoWind,                                 !- Wind Exposure
  ,                                       !- View Factor to Ground
  ,                                       !- Number of Vertices
  68.5788, 44.1948, 2.7432,               !- X,Y,Z Vertex 1 {m}
  68.5788, 44.1948, 0,                    !- X,Y,Z Vertex 2 {m}
  68.5788, 4.5732, 0,                     !- X,Y,Z Vertex 3 {m}
  68.5788, 4.5732, 2.7432;                !- X,Y,Z Vertex 4 {m}

OS:Surface,
  {7be71dc6-f29d-4e2b-bf7e-c302b3ec26b3}, !- Handle
  S1_east space_wall 1,                   !- Name
  Wall,                                   !- Surface Type
  ,                                       !- Construction Name
  {d900b5b2-b355-47b1-8ab7-bcb7244b9988}, !- Space Name
  Surface,                                !- Outside Boundary Condition
  {caf63106-b2f2-485a-b803-f9910df8fc1f}, !- Outside Boundary Condition Object
  NoSun,                                  !- Sun Exposure
  NoWind,                                 !- Wind Exposure
  ,                                       !- View Factor to Ground
  ,                                       !- Number of Vertices
  68.5788, 4.5732, 2.7432,                !- X,Y,Z Vertex 1 {m}
  68.5788, 4.5732, 0,                     !- X,Y,Z Vertex 2 {m}
  73.152, 0, 0,                           !- X,Y,Z Vertex 3 {m}
  73.152, 0, 2.7432;                      !- X,Y,Z Vertex 4 {m}

OS:Surface,
  {09a099ce-3357-4820-af0b-ea6bce7221c1}, !- Handle
  S1_east space_wall 2,                   !- Name
  Wall,                                   !- Surface Type
  ,                                       !- Construction Name
  {d900b5b2-b355-47b1-8ab7-bcb7244b9988}, !- Space Name
  Outdoors,                               !- Outside Boundary Condition
  ,                                       !- Outside Boundary Condition Object
  SunExposed,                             !- Sun Exposure
  WindExposed,                            !- Wind Exposure
  ,                                       !- View Factor to Ground
  ,                                       !- Number of Vertices
  73.152, 23.474, 2.7432,                 !- X,Y,Z Vertex 1 {m}
  73.152, 23.474, 0,                      !- X,Y,Z Vertex 2 {m}
  73.152, 25.294, 0,                      !- X,Y,Z Vertex 3 {m}
  73.152, 25.294, 2.7432;                 !- X,Y,Z Vertex 4 {m}

OS:Surface,
  {abc9bb24-4a2e-4700-a96f-26ea627b4c27}, !- Handle
  S1_east space_wall 2 left,              !- Name
  Wall,                                   !- Surface Type
  ,                                       !- Construction Name
  {d900b5b2-b355-47b1-8ab7-bcb7244b9988}, !- Space Name
  Outdoors,                               !- Outside Boundary Condition
  ,                                       !- Outside Boundary Condition Object
  SunExposed,                             !- Sun Exposure
  WindExposed,                            !- Wind Exposure
  ,                                       !- View Factor to Ground
  ,                                       !- Number of Vertices
  73.152, 0, 2.7432,                      !- X,Y,Z Vertex 1 {m}
  73.152, 0, 0,                           !- X,Y,Z Vertex 2 {m}
  73.152, 23.474, 0,                      !- X,Y,Z Vertex 3 {m}
  73.152, 23.474, 2.7432;                 !- X,Y,Z Vertex 4 {m}

OS:SubSurface,
  {9fd5f762-72b7-4c59-ae83-e2e9e39128e6}, !- Handle
  Sub Surface 1,                          !- Name
  FixedWindow,                            !- Sub Surface Type
  ,                                       !- Construction Name
  {abc9bb24-4a2e-4700-a96f-26ea627b4c27}, !- Surface Name
  ,                                       !- Outside Boundary Condition Object
  ,                                       !- View Factor to Ground
  ,                                       !- Shading Control Name
  ,                                       !- Frame and Divider Name
  ,                                       !- Multiplier
  ,                                       !- Number of Vertices
  73.152, 0.0254, 2.41197372861095,       !- X,Y,Z Vertex 1 {m}
  73.152, 0.0254, 0.762,                  !- X,Y,Z Vertex 2 {m}
  73.152, 23.4486, 0.762,                 !- X,Y,Z Vertex 3 {m}
  73.152, 23.4486, 2.41197372861095;      !- X,Y,Z Vertex 4 {m}

OS:Surface,
  {dd532fb9-0083-4d01-994a-065eddb60f2f}, !- Handle
  S1_east space_wall 2 right,             !- Name
  Wall,                                   !- Surface Type
  ,                                       !- Construction Name
  {d900b5b2-b355-47b1-8ab7-bcb7244b9988}, !- Space Name
  Outdoors,                               !- Outside Boundary Condition
  ,                                       !- Outside Boundary Condition Object
  SunExposed,                             !- Sun Exposure
  WindExposed,                            !- Wind Exposure
  ,                                       !- View Factor to Ground
  ,                                       !- Number of Vertices
  73.152, 25.294, 2.7432,                 !- X,Y,Z Vertex 1 {m}
  73.152, 25.294, 0,                      !- X,Y,Z Vertex 2 {m}
  73.152, 48.768, 0,                      !- X,Y,Z Vertex 3 {m}
  73.152, 48.768, 2.7432;                 !- X,Y,Z Vertex 4 {m}

OS:SubSurface,
  {44189c81-0cae-4258-8cdc-9d6303a478c1}, !- Handle
  Sub Surface 2,                          !- Name
  FixedWindow,                            !- Sub Surface Type
  ,                                       !- Construction Name
  {dd532fb9-0083-4d01-994a-065eddb60f2f}, !- Surface Name
  ,                                       !- Outside Boundary Condition Object
  ,                                       !- View Factor to Ground
  ,                                       !- Shading Control Name
  ,                                       !- Frame and Divider Name
  ,                                       !- Multiplier
  ,                                       !- Number of Vertices
  73.152, 25.3194, 2.41197372861095,      !- X,Y,Z Vertex 1 {m}
  73.152, 25.3194, 0.762,                 !- X,Y,Z Vertex 2 {m}
  73.152, 48.7426, 0.762,                 !- X,Y,Z Vertex 3 {m}
  73.152, 48.7426, 2.41197372861095;      !- X,Y,Z Vertex 4 {m}

OS:SubSurface,
  {84ff05dc-6549-44a6-afe7-b6dd2f22d0aa}, !- Handle
  S1_east space_wall 2 door,              !- Name
  Door,                                   !- Sub Surface Type
  ,                                       !- Construction Name
  {09a099ce-3357-4820-af0b-ea6bce7221c1}, !- Surface Name
  ,                                       !- Outside Boundary Condition Object
  ,                                       !- View Factor to Ground
  ,                                       !- Shading Control Name
  ,                                       !- Frame and Divider Name
  ,                                       !- Multiplier
  ,                                       !- Number of Vertices
  73.152, 23.474, 2.134,                  !- X,Y,Z Vertex 1 {m}
  73.152, 23.474, 0,                      !- X,Y,Z Vertex 2 {m}
  73.152, 25.294, 0,                      !- X,Y,Z Vertex 3 {m}
  73.152, 25.294, 2.134;                  !- X,Y,Z Vertex 4 {m}

OS:Surface,
  {ba7c5320-d797-4478-ad9f-59cb54187c1e}, !- Handle
  S1_east space_wall 3,                   !- Name
  Wall,                                   !- Surface Type
  ,                                       !- Construction Name
  {d900b5b2-b355-47b1-8ab7-bcb7244b9988}, !- Space Name
  Surface,                                !- Outside Boundary Condition
  {6722d82d-094a-48c7-ad95-d1904b44b366}, !- Outside Boundary Condition Object
  NoSun,                                  !- Sun Exposure
  NoWind,                                 !- Wind Exposure
  ,                                       !- View Factor to Ground
  ,                                       !- Number of Vertices
  73.152, 48.768, 2.7432,                 !- X,Y,Z Vertex 1 {m}
  73.152, 48.768, 0,                      !- X,Y,Z Vertex 2 {m}
  68.5788, 44.1948, 0,                    !- X,Y,Z Vertex 3 {m}
  68.5788, 44.1948, 2.7432;               !- X,Y,Z Vertex 4 {m}

OS:Space,
  {a1ac8eda-e464-46d9-97b9-9ea80c4f6bf7}, !- Handle
  S1_south space,                         !- Name
  {4ae6ef1f-cf06-4f32-b453-79df05a70720}, !- Space Type Name
  ,                                       !- Default Construction Set Name
  ,                                       !- Default Schedule Set Name
  ,                                       !- Direction of Relative North {deg}
  ,                                       !- X Origin {m}
  ,                                       !- Y Origin {m}
  ,                                       !- Z Origin {m}
  {4f00d3c2-7761-449c-abbd-3fb39e0eeea5}, !- Building Story Name
  {c848d36f-c596-49b2-a0d8-0e01a9931446}, !- Thermal Zone Name
  Yes;                                    !- Part of Total Floor Area

OS:Surface,
  {b5e9be3f-5c50-4332-bc08-b3386f20c5e0}, !- Handle
  S1_south space_roof,                    !- Name